power-flow-agent/results/ieee14/2026-09-21/gpt-4o-mini/single_call_structured/traces/27_case14-parameterized-025-s0.transcript.txt
==============================================================================
TRANSCRIPT  single_call:structured  |  openrouter:openai/gpt-4o-mini  |  case14  |  case14-parameterized-025-s0  run 0
==============================================================================
date: 2026-09-21   seed: 0   difficulty: parameterized   tool variant: load_split

[system]   (hash 23e5d9b407f9, from methods/single_call_structured/method.json prompt_files)
You are a power system power-flow analysis assistant. You help the user complete power system analysis tasks from natural-language requests.

## What you can do
You complete tasks by calling tool functions:
1. Load an IEEE standard test system (14, 30, 57, 118, 300 buses)
2. Run AC power flow
3. Modify the load at a bus and re-solve
4. Disconnect or reconnect a line and re-solve
5. Query the network status
6. Run an N-1 contingency analysis (disconnect branches one at a time and rank the worst cases)
7. Generate remedial-action suggestions (what-if load shedding or voltage adjustment) to reduce violation risk

## Key rules
- Never fabricate any numerical result. Every voltage, power, loss, or loading value must come from a tool return value.
- If a tool reports an error or a non-converged power flow, say so explicitly and do not report numbers for that state.
- If the request is ambiguous, state the interpretation you are using.
- Bus and line identifiers in the request are MATPOWER 1-based ids; pass them to the tools as given, unless the request itself states a different indexing convention for that identifier (e.g. "(0-based)"), in which case convert it to the MATPOWER 1-based id before calling any tool.
- After a network modification, re-solve before reporting any value.
- Always reply in English.

## Reply format
After each analysis, reply in this structure:
1. One-sentence summary
2. Key numbers (total load, total generation, total losses, voltage range) taken from the tool outputs
3. Violations, if any
4. Suggested next step

## Single-call mode
You are evaluated in single-call mode: the network named in the user message is already loaded. Read the request, decide which tools to call and with which arguments, and emit all tool calls in this one response. Do not ask clarifying questions, do not plan across turns, and do not fabricate numbers.

[user]   (complete message, rebuilt offline from the same case, seed and prompt code; the request is under '## Task')
The network case14 is loaded. Use the tools to fulfil the request below.

## System Data (compact, full case)
Case case14: 14 buses, 15 lines, 5 transformers, total load 254.3 MW. Bus ids are IEEE display ids (1..N); line_id is the net.line row index, transformers use 100000+row index.

### Buses
bus 1 | 135 kV | slack/reference vm 1.06 pu
bus 2 | 135 kV | load 20.56 MW 12.03 Mvar | gen 38.48 MW vm 1.045 pu
bus 3 | 135 kV | load 88.41 MW 17.83 Mvar | gen 0 MW vm 1.01 pu
bus 4 | 135 kV | load 52.03 MW -4.245 Mvar
bus 5 | 135 kV | load 7.956 MW 1.675 Mvar
bus 6 | 0.208 kV | load 10.18 MW 6.818 Mvar | gen 0 MW vm 1.07 pu
bus 7 | 14 kV
bus 8 | 12 kV | gen 0 MW vm 1.09 pu
bus 9 | 0.208 kV | load 29.22 MW 16.44 Mvar
bus 10 | 0.208 kV | load 8.517 MW 5.489 Mvar
bus 11 | 0.208 kV | load 3.544 MW 1.822 Mvar
bus 12 | 0.208 kV | load 5.496 MW 1.442 Mvar
bus 13 | 0.208 kV | load 13.42 MW 5.766 Mvar
bus 14 | 0.208 kV | load 14.99 MW 5.029 Mvar

### Branches
line 0 | 1-2 | r 3.532 x 10.78 ohm/km | len 1 km | max_i 42.34 kA
line 1 | 1-5 | r 9.847 x 40.65 ohm/km | len 1 km | max_i 42.34 kA
line 2 | 2-3 | r 8.564 x 36.08 ohm/km | len 1 km | max_i 42.34 kA
line 3 | 2-4 | r 10.59 x 32.13 ohm/km | len 1 km | max_i 42.34 kA
line 4 | 2-5 | r 10.38 x 31.69 ohm/km | len 1 km | max_i 42.34 kA
line 5 | 3-4 | r 12.21 x 31.17 ohm/km | len 1 km | max_i 42.34 kA
line 6 | 4-5 | r 2.433 x 7.675 ohm/km | len 1 km | max_i 42.34 kA
line 7 | 6-11 | r 4.109e-05 x 8.605e-05 ohm/km | len 1 km | max_i 2.748e+04 kA
line 8 | 6-12 | r 5.318e-05 x 0.0001107 ohm/km | len 1 km | max_i 2.748e+04 kA
line 9 | 6-13 | r 2.862e-05 x 5.636e-05 ohm/km | len 1 km | max_i 2.748e+04 kA
line 10 | 9-10 | r 1.376e-05 x 3.656e-05 ohm/km | len 1 km | max_i 2.748e+04 kA
line 11 | 9-14 | r 5.499e-05 x 0.000117 ohm/km | len 1 km | max_i 2.748e+04 kA
line 12 | 10-11 | r 3.55e-05 x 8.31e-05 ohm/km | len 1 km | max_i 2.748e+04 kA
line 13 | 12-13 | r 9.558e-05 x 8.648e-05 ohm/km | len 1 km | max_i 2.748e+04 kA
line 14 | 13-14 | r 7.395e-05 x 0.0001506 ohm/km | len 1 km | max_i 2.748e+04 kA
trafo 100000 | 4-7 | sn 9900 MVA | vk 2070 % | 135/14 kV
trafo 100001 | 4-9 | sn 9900 MVA | vk 5506 % | 135/0.208 kV
trafo 100002 | 5-6 | sn 9900 MVA | vk 2495 % | 135/0.208 kV
trafo 100003 | 7-8 | sn 9900 MVA | vk 1744 % | 14/12 kV
trafo 100004 | 7-9 | sn 9900 MVA | vk 1089 % | 14/0.208 kV

### Available tools
- load_case(case_name): Load IEEE test case.
- run_powerflow(no arguments): Run power flow on current case.
- modify_load(bus_id, p_mw, q_mvar): Modify bus load and recompute.
- disconnect_line(from_bus, to_bus): Disconnect line/branch between two buses and recompute.
- reconnect_line(from_bus, to_bus): Reconnect line/branch between two buses and recompute.
- get_most_loaded_branch(no arguments): Get most loaded branch.
- run_n1_contingency(top_k, criteria, max_candidates): Run N-1 contingency analysis.
- recommend_remedial_actions(max_actions, allow_load_shed, allow_voltage_control, include_best_comparison): Recommend remedial actions.
- apply_remedial_action(action_index, confirmed): Apply one remedial action by index.
- get_status(no arguments): Get current network status.
- generate_plot(plot_type): Generate one plot.

## Task
Load case14 and disconnect the line between bus 9 and bus 10.

## Output Requirements
Answer by emitting tool calls (function calling) in THIS single response:
- Use only the provided tools, with their exact names and argument names.
- Emit every tool call the request needs, in execution order, in one round; there is no second turn and no memory of earlier turns.
- bus_id / from_bus / to_bus are IEEE display ids (1..N), as printed in the system data.
- Never invent numerical results; numbers come only from tool outputs.
- If the request needs a case other than the loaded one, call load_case first.

[tools available to the model]   (function-calling schema, --tool-variant load_split; enum values and defaults as sent)
  load_case(case_name: string* in {case14, case30, case57, case118, case300})  Load IEEE test case.
  run_powerflow()  Run power flow on current case.
  disconnect_line(from_bus: integer*, to_bus: integer*)  Disconnect line/branch between two buses and recompute.
  reconnect_line(from_bus: integer*, to_bus: integer*)  Reconnect line/branch between two buses and recompute.
  get_most_loaded_branch()  Get most loaded branch.
  run_n1_contingency(top_k: integer (default 5), criteria: string in {max_violations, max_overload, min_voltage} (default max_violations), max_candidates: integer (default 0))  Run N-1 contingency analysis.
  recommend_remedial_actions(max_actions: integer (default 5), allow_load_shed: boolean (default True), allow_voltage_control: boolean (default True), include_best_comparison: boolean (default True))  Recommend remedial actions.
  apply_remedial_action(action_index: integer*, confirmed: boolean (default False))  Apply one remedial action by index.
  get_status()  Get current network status.
  generate_plot(plot_type: string* in {voltage_heatmap, flow_diagram, violation_overview, comparison})  Generate one plot.
  set_active_load(bus_id: integer*, p_mw: number*)  Set a bus's active load (MW) and recompute. Use this when the request states only an active-power value. This tool has no reactive-power argument: the bus's present reactive load is always left unchanged. If the request also states a reactive-power value, use set_load instead.
  set_load(bus_id: integer*, p_mw: number*, q_mvar: number*)  Set a bus's active and reactive load (MW, Mvar) and recompute. Use this only when the request states both values. If the request states only an active-power value, use set_active_load instead -- do not invent a reactive-power value here to fill this in.

--- round 1 ---
[assistant]   (2515 in / 49 out tokens, 1.3 s)
(no text)
tool_call  disconnect_line(from_bus=9, to_bus=10)
tool_call  run_powerflow()
[tool disconnect_line]   (gate: pass)
{"case_name": "case14", "converged": true, "bus_voltages": [{"bus_id": 1, "vm_pu": 1.06, "va_deg": 0.0, "is_violation": true, "violation_type": "overvoltage"}, {"bus_id": 2, "vm_pu": 1.0449999999999997, "va_deg": -4.883687263552866, "is_violation": false, "violation_type": null}, {"bus_id": 3, "vm_pu": 1.01, "va_deg": -12.272422826282618, "is_violation": false, "violation_type": null}, {"bus_id": 4, "vm_pu": 1.018837142104894, "va_deg": -10.202065062707637, "is_violation": false, "violation_type": null}, {"bus_id": 5, "vm_pu": 1.0200500419233263, "va_deg": -8.707940346286595, "is_violation": false, "violation_type": null}, {"bus_id": 6, "vm_pu": 1.0700000000000005, "va_deg": -14.334914834891373, "is_violation": true, "violation_type": "overvoltage"}, {"bus_id": 7, "vm_pu": 1.0653373544052163, "va_deg": -12.980853536140076, "is_violation": true, "violation_type": "overvoltage"}, {"bus_id": 8, "vm_pu": 1.09, "va_deg": -12.980853536140076, "is_violation": true, "violation_type": "overvoltage"}, {"bus_id": 9, "vm_pu": 1.0633166644102892, "va_deg": -14.412613812993019, "is_violation": true, "violation_type": "overvoltage"}, {"bus_id": 10, "vm_pu": 1.02743363955686, "va_deg": -15.840654861683994, "is_violation": false, "violation_type": null}, {"bus_id": 11, "vm_pu": 1.0445597026987659, "va_deg": -15.207733687823353, "is_violation": false, "violation_type": null}, {"bus_id": 12, "vm_pu": 1.0563922255662725, "va_deg": -15.101474288218999, "is_violation": true, "violation_type": "overvoltage"}, {"bus_id": 13, "vm_pu": 1.0518030822138253, "va_deg": -15.165214401634538, "is_violation": true, "violation_type": "overvoltage"}, {"bus_id": 14, "vm_pu": 1.0403202388651873, "va_deg": -15.736730338544033, "is_violation": false, "violation_type": null}], "line_flows": [{"line_id": 0, "from_bus": 1, "to_bus": 2, "p_from_mw": 153.8930924055994, "q_from_mvar": -19.702926397087765, "loading_percent": 1.478456719469798, "is_violation": false}, {"line_id": 1, "from_bus": 1, "to_bus": 5, "p_from_mw": 74.9494151514652, "q_from_mvar": 3.654291611641927, "loading_percent": 0.7155874725977192, "is_violation": false}, {"line_id": 2, "from_bus": 2, "to_bus": 3, "p_from_mw": 70.05102226302104, "q_from_mvar": 3.883148811798006, "loading_percent": 0.6793087028630471, "is_violation": false}, {"line_id": 3, "from_bus": 2, "to_bus": 4, "p_from_mw": 55.86838683374772, "q_from_mvar": -2.163546058546831, "loading_percent": 0.5404307537383637, "is_violation": false}, {"line_id": 4, "from_bus": 2, "to_bus": 5, "p_from_mw": 41.76534497953626, "q_from_mvar": 0.7913069337550042, "loading_percent": 0.4048812946619325, "is_violation": false}, {"line_id": 5, "from_bus": 3, "to_bus": 4, "p_from_mw": -20.482656877366463, "q_from_mvar": 2.546366750936512, "loading_percent": 0.2082141217512812, "is_violation": false}, {"line_id": 6, "from_bus": 4, "to_bus": 5, "p_from_mw": -59.077753666834056, "q_from_mvar": 16.63376548400659, "loading_percent": 0.6084851120817951, "is_violation": false}, {"line_id": 7, "from_bus": 6, "to_bus": 11, "p_from_mw": 12.317555767273934, "q_from_mvar": 7.869073010995425, "loading_percent": 0.13798341084186927, "is_violation": false}, {"line_id": 8, "from_bus": 6, "to_bus": 12, "p_from_mw": 7.04009750753006, "q_from_mvar": 2.3488124587596313, "loading_percent": 0.07006119993823988, "is_violation": false}, {"line_id": 9, "from_bus": 6, "to_bus": 13, "p_from_mw": 16.023154744350563, "q_from_mvar": 6.900709721152445, "loading_percent": 0.1646932237081252, "is_violation": false}, {"line_id": 10, "from_bus": 9, "to_bus": 10, "p_from_mw": 0.0, "q_from_mvar": 0.0, "loading_percent": 0.0, "is_violation": false}, {"line_id": 11, "from_bus": 9, "to_bus": 14, "p_from_mw": 11.266964174201961, "q_from_mvar": 3.8562129955956794, "loading_percent": 0.11312616273604925, "is_violation": false}, {"line_id": 12, "from_bus": 10, "to_bus": 11, "p_from_mw": -8.517002468751725, "q_from_mvar": -5.488734924000746, "loading_percent": 0.09961468747685606, "is_violation": false}, {"line_id": 13, "from_bus": 12, "to_bus": 13, "p_from_mw": 1.4851982744586074, "q_from_mvar": 0.7842319845088584, "loading_percent": 0.01605936438347785, "is_violation": false}, {"line_id": 14, "from_bus": 13, "to_bus": 14, "p_from_mw": 3.906060044141372, "q_from_mvar": 1.5675813831627923, "loading_percent": 0.040419993859125036, "is_violation": false}, {"line_id": 100000, "from_bus": 4, "to_bus": 7, "p_from_mw": 25.728832965234037, "q_from_mvar": -11.123409148076318, "loading_percent": 0.2779004585426723, "is_violation": false}, {"line_id": 100001, "from_bus": 4, "to_bus": 9, "p_from_mw": 14.75887797468447, "q_from_mvar": -1.7042855442672877, "loading_percent": 0.1472956093838235, "is_violation": false}, {"line_id": 100002, "from_bus": 5, "to_bus": 6, "p_from_mw": 45.56257841241919, "q_from_mvar": 12.867847120898643, "loading_percent": 0.46883023231831455, "is_violation": false}, {"line_id": 100003, "from_bus": 7, "to_bus": 8, "p_from_mw": 1.6118978268965533e-14, "q_from_mvar": -14.915718200726813, "loading_percent": 0.14142357778628553, "is_violation": false}, {"line_id": 100004, "from_bus": 7, "to_bus": 9, "p_from_mw": 25.728832964356407, "q_from_mvar": 2.278321880238994, "loading_percent": 0.24490283963531728, "is_violation": false}], "total_generation_mw": 267.3235780441252, "total_load_mw": 254.31526042557968, "total_loss_mw": 13.008317624897318, "voltage_violations": [{"bus_id": 1, "vm_pu": 1.06, "va_deg": 0.0, "is_violation": true, "violation_type": "overvoltage"}, {"bus_id": 6, "vm_pu": 1.0700000000000005, "va_deg": -14.334914834891373, "is_violation": true, "violation_type": "overvoltage"}, {"bus_id": 7, "vm_pu": 1.0653373544052163, "va_deg": -12.980853536140076, "is_violation": true, "violation_type": "overvoltage"}, {"bus_id": 8, "vm_pu": 1.09, "va_deg": -12.980853536140076, "is_violation": true, "violation_type": "overvoltage"}, {"bus_id": 9, "vm_pu": 1.0633166644102892, "va_deg": -14.412613812993019, "is_violation": true, "violation_type": "overvoltage"}, {"bus_id": 12, "vm_pu": 1.0563922255662725, "va_deg": -15.101474288218999, "is_violation": true, "violation_type": "overvoltage"}, {"bus_id": 13, "vm_pu": 1.0518030822138253, "va_deg": -15.165214401634538, "is_violation": true, "violation_type": "overvoltage"}], "thermal_violations": [], "summary_text": "", "solver_backend": "pandapower", "llm_prompt": null, "llm_response": null}
[tool run_powerflow]   (gate: pass)
{"case_name": "case14", "converged": true, "bus_voltages": [{"bus_id": 1, "vm_pu": 1.06, "va_deg": 0.0, "is_violation": true, "violation_type": "overvoltage"}, {"bus_id": 2, "vm_pu": 1.0449999999999997, "va_deg": -4.883687263552866, "is_violation": false, "violation_type": null}, {"bus_id": 3, "vm_pu": 1.01, "va_deg": -12.272422826282618, "is_violation": false, "violation_type": null}, {"bus_id": 4, "vm_pu": 1.018837142104894, "va_deg": -10.202065062707637, "is_violation": false, "violation_type": null}, {"bus_id": 5, "vm_pu": 1.0200500419233263, "va_deg": -8.707940346286595, "is_violation": false, "violation_type": null}, {"bus_id": 6, "vm_pu": 1.0700000000000005, "va_deg": -14.334914834891373, "is_violation": true, "violation_type": "overvoltage"}, {"bus_id": 7, "vm_pu": 1.0653373544052163, "va_deg": -12.980853536140076, "is_violation": true, "violation_type": "overvoltage"}, {"bus_id": 8, "vm_pu": 1.09, "va_deg": -12.980853536140076, "is_violation": true, "violation_type": "overvoltage"}, {"bus_id": 9, "vm_pu": 1.0633166644102892, "va_deg": -14.412613812993019, "is_violation": true, "violation_type": "overvoltage"}, {"bus_id": 10, "vm_pu": 1.02743363955686, "va_deg": -15.840654861683994, "is_violation": false, "violation_type": null}, {"bus_id": 11, "vm_pu": 1.0445597026987659, "va_deg": -15.207733687823353, "is_violation": false, "violation_type": null}, {"bus_id": 12, "vm_pu": 1.0563922255662725, "va_deg": -15.101474288218999, "is_violation": true, "violation_type": "overvoltage"}, {"bus_id": 13, "vm_pu": 1.0518030822138253, "va_deg": -15.165214401634538, "is_violation": true, "violation_type": "overvoltage"}, {"bus_id": 14, "vm_pu": 1.0403202388651873, "va_deg": -15.736730338544033, "is_violation": false, "violation_type": null}], "line_flows": [{"line_id": 0, "from_bus": 1, "to_bus": 2, "p_from_mw": 153.8930924055994, "q_from_mvar": -19.702926397087765, "loading_percent": 1.478456719469798, "is_violation": false}, {"line_id": 1, "from_bus": 1, "to_bus": 5, "p_from_mw": 74.9494151514652, "q_from_mvar": 3.654291611641927, "loading_percent": 0.7155874725977192, "is_violation": false}, {"line_id": 2, "from_bus": 2, "to_bus": 3, "p_from_mw": 70.05102226302104, "q_from_mvar": 3.883148811798006, "loading_percent": 0.6793087028630471, "is_violation": false}, {"line_id": 3, "from_bus": 2, "to_bus": 4, "p_from_mw": 55.86838683374772, "q_from_mvar": -2.163546058546831, "loading_percent": 0.5404307537383637, "is_violation": false}, {"line_id": 4, "from_bus": 2, "to_bus": 5, "p_from_mw": 41.76534497953626, "q_from_mvar": 0.7913069337550042, "loading_percent": 0.4048812946619325, "is_violation": false}, {"line_id": 5, "from_bus": 3, "to_bus": 4, "p_from_mw": -20.482656877366463, "q_from_mvar": 2.546366750936512, "loading_percent": 0.2082141217512812, "is_violation": false}, {"line_id": 6, "from_bus": 4, "to_bus": 5, "p_from_mw": -59.077753666834056, "q_from_mvar": 16.63376548400659, "loading_percent": 0.6084851120817951, "is_violation": false}, {"line_id": 7, "from_bus": 6, "to_bus": 11, "p_from_mw": 12.317555767273934, "q_from_mvar": 7.869073010995425, "loading_percent": 0.13798341084186927, "is_violation": false}, {"line_id": 8, "from_bus": 6, "to_bus": 12, "p_from_mw": 7.04009750753006, "q_from_mvar": 2.3488124587596313, "loading_percent": 0.07006119993823988, "is_violation": false}, {"line_id": 9, "from_bus": 6, "to_bus": 13, "p_from_mw": 16.023154744350563, "q_from_mvar": 6.900709721152445, "loading_percent": 0.1646932237081252, "is_violation": false}, {"line_id": 10, "from_bus": 9, "to_bus": 10, "p_from_mw": 0.0, "q_from_mvar": 0.0, "loading_percent": 0.0, "is_violation": false}, {"line_id": 11, "from_bus": 9, "to_bus": 14, "p_from_mw": 11.266964174201961, "q_from_mvar": 3.8562129955956794, "loading_percent": 0.11312616273604925, "is_violation": false}, {"line_id": 12, "from_bus": 10, "to_bus": 11, "p_from_mw": -8.517002468751725, "q_from_mvar": -5.488734924000746, "loading_percent": 0.09961468747685606, "is_violation": false}, {"line_id": 13, "from_bus": 12, "to_bus": 13, "p_from_mw": 1.4851982744586074, "q_from_mvar": 0.7842319845088584, "loading_percent": 0.01605936438347785, "is_violation": false}, {"line_id": 14, "from_bus": 13, "to_bus": 14, "p_from_mw": 3.906060044141372, "q_from_mvar": 1.5675813831627923, "loading_percent": 0.040419993859125036, "is_violation": false}, {"line_id": 100000, "from_bus": 4, "to_bus": 7, "p_from_mw": 25.728832965234037, "q_from_mvar": -11.123409148076318, "loading_percent": 0.2779004585426723, "is_violation": false}, {"line_id": 100001, "from_bus": 4, "to_bus": 9, "p_from_mw": 14.75887797468447, "q_from_mvar": -1.7042855442672877, "loading_percent": 0.1472956093838235, "is_violation": false}, {"line_id": 100002, "from_bus": 5, "to_bus": 6, "p_from_mw": 45.56257841241919, "q_from_mvar": 12.867847120898643, "loading_percent": 0.46883023231831455, "is_violation": false}, {"line_id": 100003, "from_bus": 7, "to_bus": 8, "p_from_mw": 1.6118978268965533e-14, "q_from_mvar": -14.915718200726813, "loading_percent": 0.14142357778628553, "is_violation": false}, {"line_id": 100004, "from_bus": 7, "to_bus": 9, "p_from_mw": 25.728832964356407, "q_from_mvar": 2.278321880238994, "loading_percent": 0.24490283963531728, "is_violation": false}], "total_generation_mw": 267.3235780441252, "total_load_mw": 254.31526042557968, "total_loss_mw": 13.008317624897318, "voltage_violations": [{"bus_id": 1, "vm_pu": 1.06, "va_deg": 0.0, "is_violation": true, "violation_type": "overvoltage"}, {"bus_id": 6, "vm_pu": 1.0700000000000005, "va_deg": -14.334914834891373, "is_violation": true, "violation_type": "overvoltage"}, {"bus_id": 7, "vm_pu": 1.0653373544052163, "va_deg": -12.980853536140076, "is_violation": true, "violation_type": "overvoltage"}, {"bus_id": 8, "vm_pu": 1.09, "va_deg": -12.980853536140076, "is_violation": true, "violation_type": "overvoltage"}, {"bus_id": 9, "vm_pu": 1.0633166644102892, "va_deg": -14.412613812993019, "is_violation": true, "violation_type": "overvoltage"}, {"bus_id": 12, "vm_pu": 1.0563922255662725, "va_deg": -15.101474288218999, "is_violation": true, "violation_type": "overvoltage"}, {"bus_id": 13, "vm_pu": 1.0518030822138253, "va_deg": -15.165214401634538, "is_violation": true, "violation_type": "overvoltage"}], "thermal_violations": [], "summary_text": "", "solver_backend": "pandapower", "llm_prompt": null, "llm_response": null}

--- round 2 ---
[assistant final]   (7256 in / 117 out tokens, 2.7 s)
The line between bus 9 and bus 10 has been successfully disconnected. 

Key numbers:
- Total load: 254.32 MW
- Total generation: 267.32 MW
- Total losses: 13.01 MW
- Voltage range: 1.01 pu to 1.09 pu

Violations:
- Overvoltage violations at buses 1, 6, 7, 8, 9, 12, and 13.

Suggested next step: Consider running a contingency analysis or recommending remedial actions to address the voltage violations.
